tests/data/power_flow/floating-ground-no-error/linear/delta-wye_n/asym_output.json
{
  "version": "1.0",
  "type": "asym_output",
  "is_batch": false,
  "attributes": {},
  "data": {
    "node": [
      {"id": 1, "energized": 1, "u_pu": [0.99999999999992273, 0.99999999999992273, 0.99999999999992251], "u": [5773.502691895811, 5773.502691895811, 5773.5026918958101], "u_angle": [6.3321425202771386e-14, -2.0943951023931322, 2.0943951023932588], "p": [3.333250004152791, 3.3332500041496647, 3.3332500041699595], "q": [33.165418788836256, 33.165418788936904, 33.165418788811472]},
      {"id": 2, "energized": 1, "u_pu": [0.9999500024997976, 0.99995000249979771, 0.99995000249979749], "u": [57.732140311942509, 57.732140311942516, 57.732140311942501], "u_angle": [-0.52359877559823531, -2.6179938779914309, 1.5707963267949601], "p": [1.3544983780119949e-11, -0, 4.6256979843742569e-12], "q": [-5.0550567655091141e-11, 0, -3.7005583874974972e-11]}
    ],
    "transformer": [
      {"id": 4, "energized": 1, "loading": 0.00099997500125138502, "p_from": [3.333250004152791, 3.3332500041496647, 3.3332500041699595], "q_from": [33.165418788836256, 33.165418788936904, 33.165418788811472], "i_from": [0.0057733583615498432, 0.005773358361567134, 0.0057733583615458689], "s_from": [33.332500041687204, 33.332500041787043, 33.332500041664261], "p_to": [1.3544983780119949e-11, -0, 4.6256979843742569e-12], "q_to": [-5.0550567655091141e-11, 0, -3.7005583874974972e-11], "i_to": [9.0649330367367893e-13, 0, 6.4597586741603674e-13], "s_to": [5.2333798599525138e-11, 0, 3.7293569415791402e-11]}
    ],
    "source": [
      {"id": 3, "energized": 1, "p": [3.333250004152791, 3.3332500041496669, 3.3332500041699618], "q": [33.165418788836256, 33.165418788936911, 33.165418788811472], "i": [0.0057733583615498432, 0.0057733583615671357, 0.0057733583615458689], "s": [33.332500041687204, 33.332500041787043, 33.332500041664261], "pf": [0.09999999999952211, 0.099999999999128855, 0.10000000000010607]}
    ],
    "asym_load": [
      {"id": 21, "energized": 0, "p": [-0, -0, -0], "q": [-0, -0, -0], "i": [0, 0, 0], "s": [0, 0, 0], "pf": [0, 0, 0]}
    ]
  }
}